%Chk=acidotricloroacetico.chk
#n B3LYP/6-31+G(d,p) Opt Pop=NPA

 acidotricloroacetico

0 1
C         -3.51969        2.01238       -0.35860
C         -2.04408        1.95928       -0.01710
O         -4.07383        3.09884       -0.42334
O         -4.24784        0.89640       -0.59513
Cl        -1.12540        2.87801       -1.23620
Cl        -1.37128        0.30528        0.04156
Cl        -1.78251        2.71049        1.57712
H         -3.87901        0.00502       -0.56206

