%Chk=acidodicloroacetico.chk
#n B3LYP/6-31+G(d,p) Opt Pop=NPA

 acidodicloroacetico

0 1
C         -3.48763        1.96516       -0.35393
C         -2.02506        1.87650       -0.01759
O         -4.03289        3.05604       -0.41633
O         -4.20974        0.84850       -0.58908
Cl        -1.06350        2.75064       -1.23574
H         -1.69153        0.81780       -0.00273
Cl        -1.72345        2.58240        1.58969
H         -3.80983       -0.03134       -0.54806

