%chk=Etano.chk
# opt=modredundant b3lyp/sto-3g geom=connectivity

Title Card Required

0 1
 C                 -1.13978490   -0.46236558    0.00000000
 H                 -1.25877850   -1.50413349    0.21321389
 H                 -0.43494008   -0.33937302   -0.79559199
 H                 -2.08230906   -0.04798887   -0.29127333
 C                 -0.62644268    0.26359069    1.25740497
 H                  0.31618435    0.72284889    1.04424735
 H                 -1.33118515    1.01423275    1.54856568
 H                 -0.50765456   -0.44191163    2.05305304

 1 2 1.0 3 1.0 4 1.0 5 1.0
 2
 3
 4
 5 6 1.0 7 1.0 8 1.0
 6
 7
 8

D 4 1 5 7 S 36 10.000000

