%Chk=etano.chk
#n B3LYP/6-31+G(d,p) Opt Pop=NPA

 etano

0 1
C         -3.17600        2.90647       -0.00000
C         -1.65688        2.91982       -0.00000
H         -3.54539        2.08159       -0.64505
H         -3.56113        3.87255       -0.38901
H         -3.55131        2.75534        1.03405
H         -1.28157        3.07095       -1.03405
H         -1.27175        1.95374        0.38901
H         -1.28749        3.74470        0.64505

