%Chk=Benceno.chk
#p B3LYP/6-31+G(d,p) Opt 

 Benceno

0 1
C         -3.44981        2.92066       -0.00000
C         -3.46747        1.52173       -0.00000
C         -2.22946        3.60482       -0.00000
C         -1.02679        2.89006       -0.00000
C         -1.04445        1.49113       -0.00000
C         -2.26480        0.80696       -0.00000
H         -4.38023        3.47362        0.00000
H         -2.21579        4.68708       -0.00000
H         -2.27846       -0.27529       -0.00000
H         -4.41157        0.99244       -0.00000
H         -0.08269        3.41935       -0.00000
H         -0.11403        0.93816       -0.00000

