%Chk=acidocloroacetico.chk
#p B3LYP/6-31+G(d,p) Opt Pop=NPA

 acidocloroacetico

0 1
C         -0.39073        1.63615       -0.08636
O          0.82951        1.63307       -0.10323
O         -1.05730        0.74725       -0.85865
C         -1.10188        2.63338        0.79697
H         -2.02066        0.69486       -0.89344
H         -0.78743        2.47090        1.84925
Cl        -2.88460        2.54001        0.73574
H         -0.80315        3.65916        0.49510

