%Chk=acidoacetico.chk
#n B3LYP/6-31+G(d,p) Opt Pop=NPA

 acidoacetico

0 1
C         -3.43025        2.02383       -0.33522
C         -1.96901        1.96303       -0.00464
O         -3.98833        3.10684       -0.40430
O         -4.13754        0.89521       -0.55770
H         -1.39027        2.51880       -0.77184
H         -1.61055        0.91269        0.02060
H         -1.79278        2.42377        0.98990
H         -3.72490        0.02154       -0.51056

