%nprocshared=12
%chk=Butano.chk
# opt=modredundant b3lyp/3-21g geom=connectivity

Title Card Required

0 1
 C                 -3.80645147   -1.02150536    0.00000000
 H                 -3.44979704   -2.03031536    0.00000000
 H                 -3.44977863   -0.51710717   -0.87365150
 H                 -4.87645147   -1.02149218    0.00000000
 C                 -3.29310925   -0.29554909    1.25740497
 H                 -2.22311106   -0.29725616    1.25838332
 H                 -3.65137821   -0.79881709    2.13105517
 C                 -3.80412523    1.15719338    1.25599826
 H                 -4.87412302    1.15889933    1.25464336
 H                 -3.44554928    1.66056980    0.38253649
 C                 -3.29122545    1.88299429    2.51367344
 H                 -2.22122784    1.88121514    2.51506962
 H                 -3.64621373    2.89239128    2.51265437
 H                 -3.64986951    1.37966645    3.38713524

 1 2 1.0 3 1.0 4 1.0 5 1.0
 2
 3
 4
 5 6 1.0 7 1.0 8 1.0
 6
 7
 8 9 1.0 10 1.0 11 1.0
 9
 10
 11 12 1.0 13 1.0 14 1.0
 12
 13
 14

D 1 5 8 11 S 36 10.000000

